STAAD SPACE 434535 COSTA RICA
* ---------------------------------------------------------
* GENERADO EN GFEM - ZAPATAS FEM V2.0
* PROGRAMA DESARROLLADO POR: ING. JUAN CHRISTIAN ESPINOSA LOPEZ
* ---------------------------------------------------------
* AVISO: PROGRAMA EN DESARROLLO TODOS LOS DATOS DEBEN SER
* REVISADOS POR EL INGENIERO RESPONSABLE ANTES DE USARSE EN DISENO.
* ---------------------------------------------------------
STAR JOB INFORMATION
ENGINEER DATE 2026-07-12
ENGINEER NAME JUAN ESPINOSA
JOB NAME 12345678
END JOB INFORMATION
*//////////////////////////////////////////////////////////////
****** CALCULO DE ZAPATA POR FEM *****
*//////////////////////////////////////////////////////////////
INPUT WIDTH 79
UNIT METER KG
JOINT COORDINATES
1 -4.866025 0 -1.654701; 2 -4.766025 0 -1.827906; 3 -4.666025 0 -2.001111;
4 -4.566025 0 -2.174316; 5 -4.466025 0 -2.347521; 6 -4.366025 0 -2.520726;
7 -4.266025 0 -2.693931; 8 -4.166025 0 -2.867136; 9 -4.066025 0 -3.040341;
10 -3.966025 0 -3.213546; 11 -3.866025 0 -3.386751; 12 -3.674346 0 -3.386751;
13 -3.475732 0 -3.386751; 14 -3.277119 0 -3.386751; 15 -3.078506 0 -3.386751;
16 -2.879893 0 -3.386751; 17 -2.681279 0 -3.386751; 18 -2.482666 0 -3.386751;
19 -2.284053 0 -3.386751; 20 -2.085439 0 -3.386751; 21 -1.886826 0 -3.386751;
22 -1.688213 0 -3.386751; 23 -1.4896 0 -3.386751; 24 -1.290986 0 -3.386751;
25 -1.092373 0 -3.386751; 26 -0.89376 0 -3.386751; 27 -0.695146 0 -3.386751;
28 -0.496533 0 -3.386751; 29 -0.29792 0 -3.386751; 30 -0.099307 0 -3.386751;
31 0.099307 0 -3.386751; 32 0.29792 0 -3.386751; 33 0.496533 0 -3.386751;
34 0.695146 0 -3.386751; 35 0.89376 0 -3.386751; 36 1.092373 0 -3.386751;
37 1.290986 0 -3.386751; 38 1.4896 0 -3.386751; 39 1.688213 0 -3.386751;
40 1.886826 0 -3.386751; 41 2.085439 0 -3.386751; 42 2.284053 0 -3.386751;
43 2.482666 0 -3.386751; 44 2.681279 0 -3.386751; 45 2.879893 0 -3.386751;
46 3.078506 0 -3.386751; 47 3.277119 0 -3.386751; 48 3.475732 0 -3.386751;
49 3.674346 0 -3.386751; 50 3.866025 0 -3.386751; 51 3.966025 0 -3.213546;
52 4.066025 0 -3.040341; 53 4.166025 0 -2.867136; 54 4.266025 0 -2.693931;
55 4.366025 0 -2.520726; 56 4.466025 0 -2.347521; 57 4.566025 0 -2.174316;
58 4.666025 0 -2.001111; 59 4.766025 0 -1.827906; 60 4.866025 0 -1.654701;
# ... 489 like lines cut
*//////////////////////////////////////////////////////////////
ELEMENT INCIDENCES SHELL
*//////////////////////////////////////////////////////////////
1 150 154 153 149; 2 154 158 157 153; 3 158 162 161 157; 4 151 155 154 150;
5 155 159 158 154; 6 159 163 162 158; 7 152 156 155 151; 8 156 160 159 155;
9 160 164 163 159; 10 166 170 169 165; 11 170 174 173 169; 12 174 178 177 173;
13 167 171 170 166; 14 171 175 174 170; 15 175 179 178 174; 16 168 172 171 167;
17 172 176 175 171; 18 176 180 179 175; 19 182 186 185 181; 20 186 190 189 185;
21 190 194 193 189; 22 183 187 186 182; 23 187 191 190 186; 24 191 195 194 190;
25 184 188 187 183; 26 188 192 191 187; 27 192 196 195 191; 28 11 10 197 12;
29 50 49 234 51; 30 13 12 197 198; 31 14 13 198 199; 32 15 14 199 200;
33 16 15 200 201; 34 17 16 201 202; 35 18 17 202 203; 36 19 18 203 204;
37 20 19 204 205; 38 21 20 205 206; 39 22 21 206 207; 40 23 22 207 208;
41 24 23 208 209; 42 25 24 209 210; 43 26 25 210 211; 44 27 26 211 212;
45 28 27 212 213; 46 29 28 213 214; 47 30 29 214 215; 48 31 30 215 216;
49 32 31 216 217; 50 33 32 217 218; 51 34 33 218 219; 52 35 34 219 220;
53 36 35 220 221; 54 37 36 221 222; 55 38 37 222 223; 56 39 38 223 224;
57 40 39 224 225; 58 41 40 225 226; 59 42 41 226 227; 60 43 42 227 228;
61 44 43 228 229; 62 45 44 229 230; 63 46 45 230 231; 64 47 46 231 232;
65 48 47 232 233; 66 49 48 233 234; 67 197 10 235 236; 68 273 274 51 234;
69 198 197 236 237; 70 199 198 237 238; 71 200 199 238 239; 72 201 200 239 240;
73 202 201 240 241; 74 203 202 241 242; 75 204 203 242 243; 76 205 204 243 244;
77 206 205 244 245; 78 207 206 245 246; 79 208 207 246 247; 80 209 208 247 248;
# ... 434 like lines cut
*//////////////////////////////////////////////////////////////
START GROUP DEFINITION
*//////////////////////////////////////////////////////////////
JOINT
_P1 181 TO 185 188 189 192 TO 196
_P1A 165 TO 169 172 173 176 TO 180
_P1B 149 TO 153 156 157 160 TO 164
END GROUP DEFINITION
*//////////////////////////////////////////////////////////////
***** PROPIEDADES *****
*//////////////////////////////////////////////////////////////
ELEMENT PROPERTY
1 TO 1416 THICKNESS 0.7
*//////////////////////////////////////////////////////////////
***** MATERIALES *****
*//////////////////////////////////////////////////////////////
DEFINE MATERIAL START
ISOTROPIC CONCRETE
E 2188197888.674605
POISSON 0.25
DENSITY 2400
ALPHA 5.5E-06
DAMP 0.05
G 875279155.469842
TYPE CONCRETE
STRENGTH FCU 2100000
END DEFINE MATERIAL
*//////////////////////////////////////////////////////////////
***** CONSTANTES *****
*//////////////////////////////////////////////////////////////
CONSTANTS
MATERIAL CONCRETE ALL
*//////////////////////////////////////////////////////////////
***** APOYOS *****
*//////////////////////////////////////////////////////////////
SUPPORTS
1 TO 1416 PLATE MAT DIRECT Y SUBGRADE 2000000 PRINT COMPRESSION
*//////////////////////////////////////////////////////////////
***** ESTADOS DE CARGA *****
*//////////////////////////////////////////////////////////////
LOAD 1 PP
SELFWEIGHT Y -1 LIST ALL
*******************************************
*//////////////////////////////////////////////////////////////
LOAD 2 RELLENO
ELEMENT LOAD
1 TO 1416 PR GY -4391.065618
*******************************************
*//////////////////////////////////////////////////////////////
LOAD 3 1.2D + 1.0W 90
JOINT LOAD
_P1 FY -274.166667
_P1A FY 5165
_P1B FY -5714.166667
*******************************************
*//////////////////////////////////////////////////////////////
LOAD 4 1.2D + 1.0W 60
JOINT LOAD
_P1 FY -3327.5
_P1A FY 5831.666667
_P1B FY -3326.666667
*******************************************
*//////////////////////////////////////////////////////////////
LOAD 5 1.2D + 1.0W NORMAL
JOINT LOAD
_P1 FY -7081.666667
_P1A FY 3129.166667
_P1B FY 3129.166667
*******************************************
*//////////////////////////////////////////////////////////////
LOAD 6 1.0D + 1.0W 90
JOINT LOAD
_P1 FY -228.333333
_P1A FY 708.333333
_P1B FY -1165
*******************************************
*//////////////////////////////////////////////////////////////
LOAD 7 1.0D + 1.0W 60
JOINT LOAD
_P1 FY -754.166667
_P1A FY 822.5
_P1B FY -754.166667
*******************************************
*//////////////////////////////////////////////////////////////
LOAD 8 1.0D + 1.0W NORMAL
JOINT LOAD
_P1 FY -1400.833333
_P1A FY 357.5
_P1B FY 357.5
*******************************************
***** COMBINACIONES ESTRUCTURALES *****
*******************************************
*//////////////////////////////////////////////////////////////
LOAD 9 VIENTO A 90 + RELLENO
REPEAT LOAD
1 1.2 2 1.2 3 1.0
*******************************************
*//////////////////////////////////////////////////////////////
LOAD 10 VIENTO A 60 + RELLENO
REPEAT LOAD
1 1.2 2 1.2 4 1.0
*******************************************
*//////////////////////////////////////////////////////////////
LOAD 11 VIENTO A NORMAL + RELLENO
REPEAT LOAD
1 1.2 2 1.2 5 1.0
*******************************************
***** COMBINACIONES DESPLAZAMIENTOS *****
*******************************************
*//////////////////////////////////////////////////////////////
LOAD 12 VIENTO SERVICIO A 90 + RELLENO
REPEAT LOAD
1 1.0 2 1.0 6 1.0
*******************************************
*//////////////////////////////////////////////////////////////
LOAD 13 VIENTO SERVICIO A 60 + RELLENO
REPEAT LOAD
1 1.0 2 1.0 7 1.0
*******************************************
*//////////////////////////////////////////////////////////////
LOAD 14 VIENTO SERVICIO NORMAL + RELLENO
REPEAT LOAD
1 1.0 2 1.0 8 1.0
*//////////////////////////////////////////////////////////////
PERFORM ANALYSIS PRINT ALL
FINISH